/*--------------------------------*- C++ -*----------------------------------*\
| =========                 |                                                 |
| \\      /  F ield         | OpenFOAM: The Open Source CFD Toolbox           |
|  \\    /   O peration     | Version:  2.3.1                                 |
|   \\  /    A nd           | Web:      www.OpenFOAM.org                      |
|    \\/     M anipulation  |                                                 |
\*---------------------------------------------------------------------------*/
FoamFile
{
	version		2.0;
	format		ascii;
	class		dictionary;
	object		blockMeshDict;
}

// * * * * * * * * * * * * * * * * * * * * * * * * * * * * * * * * * * * * * * //

convertToMeters 1;

vertices
(
    (-2 2 0)   		//0 
    (2 2 0)    		//1
    (2 -2 0)  		//2 
    (-2 -2 0) 		//3 
    (-2 2 6)   		//4 
    (2 2 6)    		//5 
    (2 -2 6)   		//6 
    (-2 -2 6)  		//7 
);

blocks
(	//	the block's vertices  #cells	cell expansion ratios
    hex (0 3 2 1 4 7 6 5) (20 20 30) simpleGrading (1 1 1)  	//0 
);

edges ( );

boundary
(
	airleft		// patch 0
	{
		type	patch;
		faces
		(
			( 4 7 3 0 )		// face 0 
		);
	}

	airright	// patch 1
	{
		type	patch;
		faces
		(
			( 5 6 2 1 )	// face 1 
		);
	}

	airdown	// patch 2
	{
		type	patch;
		faces
		(
			( 3 7 6 2  )	// face 2
		);
	}

	airup		// patch 3
	{
		type	patch;
		faces
		(
			( 0 4 5 1 )	// face 3
		);
	}

	rodup			// patch 4
	{
		type	patch;
		faces
		(
			( 0 1 2 3 )		// face 4
		);
	}	

	roddown			// patch 5
	{
		type	patch;
		faces
		(
			( 4 7 6 5 )		// face 5
		);
	}	
);

// list of patches to be merged
mergePatchPairs( );

// *************************************************************************** //
