/*--------------------------------*- C++ -*----------------------------------*\
| =========                 |                                                 |
| \\      /  F ield         | OpenFOAM: The Open Source CFD Toolbox           |
|  \\    /   O peration     | Version:  3.0.1                                 |
|   \\  /    A nd           | Web:      www.OpenFOAM.org                      |
|    \\/     M anipulation  |                                                 |
\*---------------------------------------------------------------------------*/
FoamFile
{
    version     2.0;
    format      ascii;
    class       volTensorField;
    location    "0";
    object      sigma;
}
// * * * * * * * * * * * * * * * * * * * * * * * * * * * * * * * * * * * * * //

dimensions      [-1 -3 3 0 0 2 0];

internalField   uniform ( 0 0 0 0 0 0 0 0 0 );

boundaryField
{
	patch0
    {
        type            fixedValue;
        value           uniform ( 1.0  0   0
                                  0    1.0 0
                                  0    0   1.0 );
    }

	patch1
	{
        type            fixedValue;
        value           uniform ( 1.0  0   0
                                  0    1.0 0
                                  0    0   1.0 );
    }
	
    patch1
	{
        type            fixedValue;
        value           uniform ( 1.0  0   0
                                  0    1.0 0
                                  0    0   1.0 );
    }
    
    patch2
	{
        type            fixedValue;
        value           uniform ( 1.0  0   0
                                  0    1.0 0
                                  0    0   1.0 );
    }

    patch3
	{
        type            fixedValue;
        value           uniform ( 1.0  0   0
                                  0    1.0 0
                                  0    0   1.0 );
    }

    patch4
	{
        type            fixedValue;
        value           uniform ( 1.0  0   0
                                  0    1.0 0
                                  0    0   1.0 );
    }

    defaultFaces
    {
        type            zeroGradient;
    }
}


// ************************************************************************* //
