/*--------------------------------*- C++ -*----------------------------------*\
| =========                 |                                                 |
| \\      /  F ield         | OpenFOAM: The Open Source CFD Toolbox           |
|  \\    /   O peration     | Version:  2.3.1                                 |
|   \\  /    A nd           | Web:      www.OpenFOAM.org                      |
|    \\/     M anipulation  |                                                 |
\*---------------------------------------------------------------------------*/
FoamFile
{
    version     2.0;
    format      ascii;
    class       dictionary;
    object      createBafflesDict;
}
// * * * * * * * * * * * * * * * * * * * * * * * * * * * * * * * * * * * * * //

// Whether to convert internal faces only (so leave boundary faces intact).
// This is only relevant if your face selection type can pick up boundary
// faces.
internalFacesOnly false;

// Baffles to create.
baffles
{
	Electrode_0
    {
        //- Use predefined faceZone to select faces and orientation.
        type        faceZone;
        zoneName    fz0;   

        patchPairs
        {
            type            patch;

            patchFields
            {
                sigma
                {
                    type		fixedValue;
        	        value   	uniform 0.465;
                }

	        	ElPot
                {
                    type        fixedValue;
                    value       uniform 5;
                }
            }
        }
    }
	Electrode_1
    {
        //- Use predefined faceZone to select faces and orientation.
        type        faceZone;
        zoneName    fz1;   

        patchPairs
        {
            type            patch;

            patchFields
            {
                sigma
                {
                    type		fixedValue;
        	        value   	uniform 0.465;
                }

	        	ElPot
                {
                    type        fixedValue;
                    value       uniform -5;
                }
            }
        }
    }
}
