FoamFile
{
    version     2.0;
    format      ascii;
    class       dictionary;
    object      createPatchDict;
}

pointSync yes;

patches
(
    {   
        // Name of new patch
        name Electrode0;

        // Dictionary to construct new patch from
        patchInfo
        {   
            type patch;
        }

        // How to construct: either from 'patches' or 'set'
        constructFrom set;

        // If constructFrom = set : name of faceSet
        set electrode1;
    }

    {   
        // Name of new patch
        name Electrode1;

        // Dictionary to construct new patch from
        patchInfo
        {   
            type patch;
        }

        // How to construct: either from 'patches' or 'set'
        constructFrom set;

        // If constructFrom = set : name of faceSet
        set electrode2;
    }
);
