/*--------------------------------*- C++ -*----------------------------------*\
| =========                 |                                                 |
| \\      /  F ield         | OpenFOAM: The Open Source CFD Toolbox           |
|  \\    /   O peration     | Version:  2.3.1                                 |
|   \\  /    A nd           | Web:      www.OpenFOAM.org                      |
|    \\/     M anipulation  |                                                 |
\*---------------------------------------------------------------------------*/

FoamFile
{
	version	2.0;
	format	ascii;
	class	dictionary;
	object	setFieldsDict;
}

// * * * * * * * * * * * * * * * * * * * * * * * * * * * * * * * * * * * * * * //

defaultFieldValues
(
	volScalarFieldValue sigma 1e-15
);

regions
(
	zoneToCell
	{	
		name skin;    // skin

		fieldValues
		(
			volScalarFieldValue sigma 0.465
		);
	}

	zoneToCell
	{	
		name skull;    // skull

		fieldValues
		(
			volScalarFieldValue sigma 0.01
		);
	}
	
    zoneToCell
	{	
		name brain;    // grey matter

		fieldValues
		(
			volScalarFieldValue sigma 0.33
		);
	}
);

// *************************************************************************** //
