/*--------------------------------*- C++ -*----------------------------------*\
| =========                 |                                                 |
| \\      /  F ield         | OpenFOAM: The Open Source CFD Toolbox           |
|  \\    /   O peration     | Version:  2.3.1                                 |
|   \\  /    A nd           | Web:      www.OpenFOAM.org                      |
|    \\/     M anipulation  |                                                 |
\*---------------------------------------------------------------------------*/

FoamFile
{
	version	2.0;
	format	ascii;
	class	volScalarField;
	object	ElPot;
}

// * * * * * * * * * * * * * * * * * * * * * * * * * * * * * * * * * * * * * * //

dimensions		[ 1 2 -3 0 0 -1 0 ];		// [ ( kg * m^2 ) / ( A * s^3 )  ]

internalField	uniform 0;

boundaryField
{
	airleft 
	{
		type 	zeroGradient;
	}


	airright 
	{
		type 	zeroGradient;
	}

	airdown 
	{
		type 	zeroGradient;
	}

	airup 
	{
		type 	zeroGradient;
	}

	rodup
	{
		type 	fixedValue;
		value	uniform -5;
	}

	roddown
	{
		type 	fixedValue;
		value	uniform 5;
	}
}

// *************************************************************************** //
