/*--------------------------------*- C++ -*----------------------------------*\
| =========                 |                                                 |
| \\      /  F ield         | OpenFOAM: The Open Source CFD Toolbox           |
|  \\    /   O peration     | Version:  2.3.1                                 |
|   \\  /    A nd           | Web:      www.OpenFOAM.org                      |
|    \\/     M anipulation  |                                                 |
\*---------------------------------------------------------------------------*/

FoamFile
{
	version	2.0;
	format	ascii;
	class	dictionary;
	object	setFieldsDict;
}

// * * * * * * * * * * * * * * * * * * * * * * * * * * * * * * * * * * * * * * //

defaultFieldValues
(
	volVectorFieldValue sigma ( 0 0 0 )	// defaults to 0 as it is sourrrounded by air
);

regions
(
	boxToCell
	{
		box	( -0.21 -0.21 -0.01 ) ( 0.21 0.21 6.1 );
	
		fieldValues
		(
			volVectorFieldValue sigma 36590000;	// we're using a copper conductor here
		);
	}
);

// *************************************************************************** //
